powerflow scaled loads and generation PSSE/Load Flow.csv
,Bus Name,Area Number,Zone Number,Volt (PU),Volt (KV),Angle (Deg),Gen MW,Gen MVAR,Load MW,Load MVAR,Shunt MW,Shunt MVAR,To Bus Name,MW,MVAR,Transformer Ratio,Transformer Angle (Deg),Percent,Rating,Load Flow Case
0,101     NUC-A       21.600,1,77,1.02,22.032,16.5463,750.0,81.3072,0.0,0.0,0.0,-0.0,,0.0,0.0,,0.0,0,,"Load-MW = 3200, Gen-MW = 3258.64, Reactors-Mvar = 600, Capacitors-Mvar = 950, Load-Mvar = 1950"
1,101     NUC-A       21.600,0,0,0.0,0.0,0.0,0.0,0.0,0.0,0.0,0.0,0.0,151     NUCPANT     500.00    1  1,750.0001,81.3072,1.000UN,0.0,60,1250.0,"Load-MW = 3200, Gen-MW = 3258.64, Reactors-Mvar = 600, Capacitors-Mvar = 950, Load-Mvar = 1950"
2,102     NUC-B       21.600,1,77,1.02,22.032,16.5463,750.0,81.3072,0.0,0.0,0.0,-0.0,,0.0,0.0,,0.0,0,,"Load-MW = 3200, Gen-MW = 3258.64, Reactors-Mvar = 600, Capacitors-Mvar = 950, Load-Mvar = 1950"
3,102     NUC-B       21.600,0,0,0.0,0.0,0.0,0.0,0.0,0.0,0.0,0.0,0.0,151     NUCPANT     500.00    1  1,750.0001,81.3072,1.000UN,0.0,60,1250.0,"Load-MW = 3200, Gen-MW = 3258.64, Reactors-Mvar = 600, Capacitors-Mvar = 950, Load-Mvar = 1950"
4,151     NUCPANT     500.00,1,1,1.0119,505.9414,10.8884,0.0,0.0,0.0,0.0,0.0,614.3441,,0.0,0.0,,0.0,0,,"Load-MW = 3200, Gen-MW = 3258.64, Reactors-Mvar = 600, Capacitors-Mvar = 950, Load-Mvar = 1950"
5,151     NUCPANT     500.00,0,0,0.0,0.0,0.0,0.0,0.0,0.0,0.0,0.0,0.0,101     NUC-A       21.600    1  1,-748.3591,-6.9136,1.000LK,0.0,60,1250.0,"Load-MW = 3200, Gen-MW = 3258.64, Reactors-Mvar = 600, Capacitors-Mvar = 950, Load-Mvar = 1950"
6,151     NUCPANT     500.00,0,0,0.0,0.0,0.0,0.0,0.0,0.0,0.0,0.0,0.0,102     NUC-B       21.600    1  1,-748.3591,-6.9136,1.000LK,0.0,60,1250.0,"Load-MW = 3200, Gen-MW = 3258.64, Reactors-Mvar = 600, Capacitors-Mvar = 950, Load-Mvar = 1950"
7,151     NUCPANT     500.00,0,0,0.0,0.0,0.0,0.0,0.0,0.0,0.0,0.0,0.0,152     MID500      500.00    1  1,465.9492,-167.8173,,0.0,41,1200.0,"Load-MW = 3200, Gen-MW = 3258.64, Reactors-Mvar = 600, Capacitors-Mvar = 950, Load-Mvar = 1950"
8,151     NUCPANT     500.00,0,0,0.0,0.0,0.0,0.0,0.0,0.0,0.0,0.0,0.0,152     MID500      500.00    1  2,465.9492,-167.8173,,0.0,41,1200.0,"Load-MW = 3200, Gen-MW = 3258.64, Reactors-Mvar = 600, Capacitors-Mvar = 950, Load-Mvar = 1950"
9,151     NUCPANT     500.00,0,0,0.0,0.0,0.0,0.0,0.0,0.0,0.0,0.0,0.0,201     HYDRO       500.00    2  1,564.8212,-264.8822,,0.0,51,1200.0,"Load-MW = 3200, Gen-MW = 3258.64, Reactors-Mvar = 600, Capacitors-Mvar = 950, Load-Mvar = 1950"
10,152     MID500      500.00,1,1,1.017,508.4924,-1.1165,0.0,0.0,0.0,0.0,0.0,-0.0,,0.0,0.0,,0.0,0,,"Load-MW = 3200, Gen-MW = 3258.64, Reactors-Mvar = 600, Capacitors-Mvar = 950, Load-Mvar = 1950"
11,152     MID500      500.00,0,0,0.0,0.0,0.0,0.0,0.0,0.0,0.0,0.0,0.0,151     NUCPANT     500.00    1  1,-460.4329,-94.7653,,0.0,39,1200.0,"Load-MW = 3200, Gen-MW = 3258.64, Reactors-Mvar = 600, Capacitors-Mvar = 950, Load-Mvar = 1950"
12,152     MID500      500.00,0,0,0.0,0.0,0.0,0.0,0.0,0.0,0.0,0.0,0.0,151     NUCPANT     500.00    1  2,-460.4329,-94.7653,,0.0,39,1200.0,"Load-MW = 3200, Gen-MW = 3258.64, Reactors-Mvar = 600, Capacitors-Mvar = 950, Load-Mvar = 1950"
13,152     MID500      500.00,0,0,0.0,0.0,0.0,0.0,0.0,0.0,0.0,0.0,0.0,153     MID230      230.00    1  1,740.2827,297.3994,1.009LK,0.0,32,2500.0,"Load-MW = 3200, Gen-MW = 3258.64, Reactors-Mvar = 600, Capacitors-Mvar = 950, Load-Mvar = 1950"
14,152     MID500      500.00,0,0,0.0,0.0,0.0,0.0,0.0,0.0,0.0,0.0,0.0,202     EAST500     500.00    2  1,42.474,30.9343,,0.0,4,1200.0,"Load-MW = 3200, Gen-MW = 3258.64, Reactors-Mvar = 600, Capacitors-Mvar = 950, Load-Mvar = 1950"
15,152     MID500      500.00,0,0,0.0,0.0,0.0,0.0,0.0,0.0,0.0,0.0,0.0,3004     WEST        500.00    5  1,138.1109,-138.803,,0.0,0,,"Load-MW = 3200, Gen-MW = 3258.64, Reactors-Mvar = 600, Capacitors-Mvar = 950, Load-Mvar = 1950"
16,153     MID230      230.00,1,1,0.9935,228.4969,-3.2357,0.0,0.0,200.0,100.0,0.0,-0.0,,0.0,0.0,,0.0,0,,"Load-MW = 3200, Gen-MW = 3258.64, Reactors-Mvar = 600, Capacitors-Mvar = 950, Load-Mvar = 1950"
17,153     MID230      230.00,0,0,0.0,0.0,0.0,0.0,0.0,0.0,0.0,0.0,0.0,152     MID500      500.00    1  1,-740.2827,-266.0501,1.000UN,0.0,31,2500.0,"Load-MW = 3200, Gen-MW = 3258.64, Reactors-Mvar = 600, Capacitors-Mvar = 950, Load-Mvar = 1950"
18,153     MID230      230.00,0,0,0.0,0.0,0.0,0.0,0.0,0.0,0.0,0.0,0.0,154     DOWNTN      230.00    1  1,251.748,100.8719,,0.0,91,300.0,"Load-MW = 3200, Gen-MW = 3258.64, Reactors-Mvar = 600, Capacitors-Mvar = 950, Load-Mvar = 1950"
19,153     MID230      230.00,0,0,0.0,0.0,0.0,0.0,0.0,0.0,0.0,0.0,0.0,154     DOWNTN      230.00    1  2,209.79,80.77,,0.0,75,300.0,"Load-MW = 3200, Gen-MW = 3258.64, Reactors-Mvar = 600, Capacitors-Mvar = 950, Load-Mvar = 1950"
20,153     MID230      230.00,0,0,0.0,0.0,0.0,0.0,0.0,0.0,0.0,0.0,0.0,3006     UPTOWN      230.00    5  1,78.7445,-15.5919,,0.0,0,,"Load-MW = 3200, Gen-MW = 3258.64, Reactors-Mvar = 600, Capacitors-Mvar = 950, Load-Mvar = 1950"
21,154     DOWNTN      230.00,1,1,0.9392,216.0117,-9.8824,0.0,0.0,1000.0,800.0,0.0,-264.6183,,0.0,0.0,,0.0,0,,"Load-MW = 3200, Gen-MW = 3258.64, Reactors-Mvar = 600, Capacitors-Mvar = 950, Load-Mvar = 1950"
22,154     DOWNTN      230.00,0,0,0.0,0.0,0.0,0.0,0.0,0.0,0.0,0.0,0.0,153     MID230      230.00    1  1,-247.9702,-76.2166,,0.0,92,300.0,"Load-MW = 3200, Gen-MW = 3258.64, Reactors-Mvar = 600, Capacitors-Mvar = 950, Load-Mvar = 1950"
23,154     DOWNTN      230.00,0,0,0.0,0.0,0.0,0.0,0.0,0.0,0.0,0.0,0.0,153     MID230      230.00    1  2,-206.6418,-66.4541,,0.0,77,300.0,"Load-MW = 3200, Gen-MW = 3258.64, Reactors-Mvar = 600, Capacitors-Mvar = 950, Load-Mvar = 1950"
24,154     DOWNTN      230.00,0,0,0.0,0.0,0.0,0.0,0.0,0.0,0.0,0.0,0.0,203     EAST230     230.00    2  1,-122.3464,-53.6161,,0.0,71,200.0,"Load-MW = 3200, Gen-MW = 3258.64, Reactors-Mvar = 600, Capacitors-Mvar = 950, Load-Mvar = 1950"
25,154     DOWNTN      230.00,0,0,0.0,0.0,0.0,0.0,0.0,0.0,0.0,0.0,0.0,205     SUB230      230.00    2  1,-354.1113,-250.8575,,0.0,77,600.0,"Load-MW = 3200, Gen-MW = 3258.64, Reactors-Mvar = 600, Capacitors-Mvar = 950, Load-Mvar = 1950"
26,154     DOWNTN      230.00,0,0,0.0,0.0,0.0,0.0,0.0,0.0,0.0,0.0,0.0,3008     CATDOG      230.00    5  1,-68.9352,-88.2395,,0.0,30,400.0,"Load-MW = 3200, Gen-MW = 3258.64, Reactors-Mvar = 600, Capacitors-Mvar = 950, Load-Mvar = 1950"
27,201     HYDRO       500.00,2,2,1.04,520.0,6.1595,0.0,0.0,0.0,0.0,0.0,-324.48,,0.0,0.0,,0.0,0,,"Load-MW = 3200, Gen-MW = 3258.64, Reactors-Mvar = 600, Capacitors-Mvar = 950, Load-Mvar = 1950"
28,201     HYDRO       500.00,0,0,0.0,0.0,0.0,0.0,0.0,0.0,0.0,0.0,0.0,151     NUCPANT     500.00    1  1,-561.3012,191.3515,,0.0,48,1200.0,"Load-MW = 3200, Gen-MW = 3258.64, Reactors-Mvar = 600, Capacitors-Mvar = 950, Load-Mvar = 1950"
29,201     HYDRO       500.00,0,0,0.0,0.0,0.0,0.0,0.0,0.0,0.0,0.0,0.0,202     EAST500     500.00    2  1,555.8046,12.9184,,0.0,45,1200.0,"Load-MW = 3200, Gen-MW = 3258.64, Reactors-Mvar = 600, Capacitors-Mvar = 950, Load-Mvar = 1950"
30,201     HYDRO       500.00,0,0,0.0,0.0,0.0,0.0,0.0,0.0,0.0,0.0,0.0,205     SUB230      230.00    2  &1,603.1671,66.7787,,0.0,49,1200.0,"Load-MW = 3200, Gen-MW = 3258.64, Reactors-Mvar = 600, Capacitors-Mvar = 950, Load-Mvar = 1950"
31,201     HYDRO       500.00,0,0,0.0,0.0,0.0,0.0,0.0,0.0,0.0,0.0,0.0,211     HYDRO_G     20.000    2  1,-597.6642,53.416,1.000LK,0.0,75,800.0,"Load-MW = 3200, Gen-MW = 3258.64, Reactors-Mvar = 600, Capacitors-Mvar = 950, Load-Mvar = 1950"
32,202     EAST500     500.00,2,2,1.0088,504.3923,-1.3179,0.0,0.0,0.0,0.0,0.0,-0.0,,0.0,0.0,,0.0,0,,"Load-MW = 3200, Gen-MW = 3258.64, Reactors-Mvar = 600, Capacitors-Mvar = 950, Load-Mvar = 1950"
33,202     EAST500     500.00,0,0,0.0,0.0,0.0,0.0,0.0,0.0,0.0,0.0,0.0,152     MID500      500.00    1  1,-42.4104,-127.6056,,0.0,11,1200.0,"Load-MW = 3200, Gen-MW = 3258.64, Reactors-Mvar = 600, Capacitors-Mvar = 950, Load-Mvar = 1950"
34,202     EAST500     500.00,0,0,0.0,0.0,0.0,0.0,0.0,0.0,0.0,0.0,0.0,201     HYDRO       500.00    2  1,-549.8212,-148.0513,,0.0,47,1200.0,"Load-MW = 3200, Gen-MW = 3258.64, Reactors-Mvar = 600, Capacitors-Mvar = 950, Load-Mvar = 1950"
35,202     EAST500     500.00,0,0,0.0,0.0,0.0,0.0,0.0,0.0,0.0,0.0,0.0,203     EAST230     230.00    2  1,592.2335,275.657,1.000LK,0.0,82,800.0,"Load-MW = 3200, Gen-MW = 3258.64, Reactors-Mvar = 600, Capacitors-Mvar = 950, Load-Mvar = 1950"
36,203     EAST230     230.00,2,2,0.9666,222.328,-6.9167,0.0,0.0,300.0,150.0,0.0,-46.72,,0.0,0.0,,0.0,0,,"Load-MW = 3200, Gen-MW = 3258.64, Reactors-Mvar = 600, Capacitors-Mvar = 950, Load-Mvar = 1950"
37,203     EAST230     230.00,0,0,0.0,0.0,0.0,0.0,0.0,0.0,0.0,0.0,0.0,154     DOWNTN      230.00    1  1,123.135,52.4198,,0.0,69,200.0,"Load-MW = 3200, Gen-MW = 3258.64, Reactors-Mvar = 600, Capacitors-Mvar = 950, Load-Mvar = 1950"
38,203     EAST230     230.00,0,0,0.0,0.0,0.0,0.0,0.0,0.0,0.0,0.0,0.0,202     EAST500     500.00    2  1,-590.5562,-207.5162,1.000UN,0.0,78,800.0,"Load-MW = 3200, Gen-MW = 3258.64, Reactors-Mvar = 600, Capacitors-Mvar = 950, Load-Mvar = 1950"
39,203     EAST230     230.00,0,0,0.0,0.0,0.0,0.0,0.0,0.0,0.0,0.0,0.0,205     SUB230      230.00    2  1,83.7102,25.908,,0.0,45,200.0,"Load-MW = 3200, Gen-MW = 3258.64, Reactors-Mvar = 600, Capacitors-Mvar = 950, Load-Mvar = 1950"
40,203     EAST230     230.00,0,0,0.0,0.0,0.0,0.0,0.0,0.0,0.0,0.0,0.0,205     SUB230      230.00    2  2,83.7102,25.908,,0.0,45,200.0,"Load-MW = 3200, Gen-MW = 3258.64, Reactors-Mvar = 600, Capacitors-Mvar = 950, Load-Mvar = 1950"
41,205     SUB230      230.00,2,2,0.9493,218.3277,-9.1769,0.0,0.0,1200.0,700.0,0.0,-270.3232,,0.0,0.0,,0.0,0,,"Load-MW = 3200, Gen-MW = 3258.64, Reactors-Mvar = 600, Capacitors-Mvar = 950, Load-Mvar = 1950"
42,205     SUB230      230.00,0,0,0.0,0.0,0.0,0.0,0.0,0.0,0.0,0.0,0.0,154     DOWNTN      230.00    1  1,354.8084,249.8685,,0.0,76,600.0,"Load-MW = 3200, Gen-MW = 3258.64, Reactors-Mvar = 600, Capacitors-Mvar = 950, Load-Mvar = 1950"
43,205     SUB230      230.00,0,0,0.0,0.0,0.0,0.0,0.0,0.0,0.0,0.0,0.0,201     HYDRO       500.00    2  &1,-590.7128,-147.8085,1.000UN,0.0,76,800.0,"Load-MW = 3200, Gen-MW = 3258.64, Reactors-Mvar = 600, Capacitors-Mvar = 950, Load-Mvar = 1950"
44,205     SUB230      230.00,0,0,0.0,0.0,0.0,0.0,0.0,0.0,0.0,0.0,0.0,203     EAST230     230.00    2  1,-83.2882,-29.4519,,0.0,47,200.0,"Load-MW = 3200, Gen-MW = 3258.64, Reactors-Mvar = 600, Capacitors-Mvar = 950, Load-Mvar = 1950"
45,205     SUB230      230.00,0,0,0.0,0.0,0.0,0.0,0.0,0.0,0.0,0.0,0.0,203     EAST230     230.00    2  2,-83.2882,-29.4519,,0.0,47,200.0,"Load-MW = 3200, Gen-MW = 3258.64, Reactors-Mvar = 600, Capacitors-Mvar = 950, Load-Mvar = 1950"
46,205     SUB230      230.00,0,0,0.0,0.0,0.0,0.0,0.0,0.0,0.0,0.0,0.0,206     URBGEN      18.000    2  1,-797.5245,-472.8347,1.000LK,0.0,103,900.0,"Load-MW = 3200, Gen-MW = 3258.64, Reactors-Mvar = 600, Capacitors-Mvar = 950, Load-Mvar = 1950"
47,206     URBGEN      18.000,2,2,1.0238,18.4291,-2.9698,800.0,600.0,0.0,0.0,0.0,-0.0,,0.0,0.0,,0.0,0,,"Load-MW = 3200, Gen-MW = 3258.64, Reactors-Mvar = 600, Capacitors-Mvar = 950, Load-Mvar = 1950"
48,206     URBGEN      18.000,0,0,0.0,0.0,0.0,0.0,0.0,0.0,0.0,0.0,0.0,205     SUB230      230.00    2  1,800.0048,600.0015,1.000UN,0.0,111,900.0,"Load-MW = 3200, Gen-MW = 3258.64, Reactors-Mvar = 600, Capacitors-Mvar = 950, Load-Mvar = 1950"
49,211     HYDRO_G     20.000,2,2,1.0403,20.8069,12.9206,600.0,17.3082,0.0,0.0,0.0,-0.0,,0.0,0.0,,0.0,0,,"Load-MW = 3200, Gen-MW = 3258.64, Reactors-Mvar = 600, Capacitors-Mvar = 950, Load-Mvar = 1950"
50,211     HYDRO_G     20.000,0,0,0.0,0.0,0.0,0.0,0.0,0.0,0.0,0.0,0.0,201     HYDRO       500.00    2  1,599.9944,17.3235,1.000UN,0.0,75,800.0,"Load-MW = 3200, Gen-MW = 3258.64, Reactors-Mvar = 600, Capacitors-Mvar = 950, Load-Mvar = 1950"
51,3001     MINE        230.00,5,5,1.0298,236.8623,-1.3727,0.0,0.0,0.0,0.0,0.0,-0.0,,0.0,0.0,,0.0,0,,"Load-MW = 3200, Gen-MW = 3258.64, Reactors-Mvar = 600, Capacitors-Mvar = 950, Load-Mvar = 1950"
52,3001     MINE        230.00,0,0,0.0,0.0,0.0,0.0,0.0,0.0,0.0,0.0,0.0,3002     E. MINE     500.00    5  1,55.9844,11.9745,1.000LK,0.0,7,800.0,"Load-MW = 3200, Gen-MW = 3258.64, Reactors-Mvar = 600, Capacitors-Mvar = 950, Load-Mvar = 1950"
53,3001     MINE        230.00,0,0,0.0,0.0,0.0,0.0,0.0,0.0,0.0,0.0,0.0,3003     S. MINE     230.00    5  1,202.5103,84.4547,,0.0,0,,"Load-MW = 3200, Gen-MW = 3258.64, Reactors-Mvar = 600, Capacitors-Mvar = 950, Load-Mvar = 1950"
54,3001     MINE        230.00,0,0,0.0,0.0,0.0,0.0,0.0,0.0,0.0,0.0,0.0,3011     MINE_G      13.800    5  1,-258.4945,-96.4291,1.000LK,0.0,21,1300.0,"Load-MW = 3200, Gen-MW = 3258.64, Reactors-Mvar = 600, Capacitors-Mvar = 950, Load-Mvar = 1950"
55,3002     E. MINE     500.00,5,5,1.028,513.9804,-1.8252,0.0,0.0,0.0,0.0,0.0,-0.0,,0.0,0.0,,0.0,0,,"Load-MW = 3200, Gen-MW = 3258.64, Reactors-Mvar = 600, Capacitors-Mvar = 950, Load-Mvar = 1950"
56,3002     E. MINE     500.00,0,0,0.0,0.0,0.0,0.0,0.0,0.0,0.0,0.0,0.0,3001     MINE        230.00    5  1,-55.9752,-11.5109,1.000UN,0.0,7,800.0,"Load-MW = 3200, Gen-MW = 3258.64, Reactors-Mvar = 600, Capacitors-Mvar = 950, Load-Mvar = 1950"
57,3002     E. MINE     500.00,0,0,0.0,0.0,0.0,0.0,0.0,0.0,0.0,0.0,0.0,3004     WEST        500.00    5  1,55.9751,11.5109,,0.0,0,,"Load-MW = 3200, Gen-MW = 3258.64, Reactors-Mvar = 600, Capacitors-Mvar = 950, Load-Mvar = 1950"
58,3003     S. MINE     230.00,5,5,1.0234,235.3811,-2.2534,0.0,0.0,0.0,0.0,0.0,-0.0,,0.0,0.0,,0.0,0,,"Load-MW = 3200, Gen-MW = 3258.64, Reactors-Mvar = 600, Capacitors-Mvar = 950, Load-Mvar = 1950"
59,3003     S. MINE     230.00,0,0,0.0,0.0,0.0,0.0,0.0,0.0,0.0,0.0,0.0,3001     MINE        230.00    5  1,-202.5103,-80.8232,,0.0,0,,"Load-MW = 3200, Gen-MW = 3258.64, Reactors-Mvar = 600, Capacitors-Mvar = 950, Load-Mvar = 1950"
60,3003     S. MINE     230.00,0,0,0.0,0.0,0.0,0.0,0.0,0.0,0.0,0.0,0.0,3005     WEST        230.00    5  1,101.2551,40.4116,,0.0,0,,"Load-MW = 3200, Gen-MW = 3258.64, Reactors-Mvar = 600, Capacitors-Mvar = 950, Load-Mvar = 1950"
61,3003     S. MINE     230.00,0,0,0.0,0.0,0.0,0.0,0.0,0.0,0.0,0.0,0.0,3005     WEST        230.00    5  2,101.2551,40.4116,,0.0,0,,"Load-MW = 3200, Gen-MW = 3258.64, Reactors-Mvar = 600, Capacitors-Mvar = 950, Load-Mvar = 1950"
62,3004     WEST        500.00,5,5,1.0165,508.2736,-3.4292,0.0,0.0,0.0,0.0,0.0,-0.0,,0.0,0.0,,0.0,0,,"Load-MW = 3200, Gen-MW = 3258.64, Reactors-Mvar = 600, Capacitors-Mvar = 950, Load-Mvar = 1950"
63,3004     WEST        500.00,0,0,0.0,0.0,0.0,0.0,0.0,0.0,0.0,0.0,0.0,152     MID500      500.00    1  1,-137.5549,-114.0912,,0.0,0,,"Load-MW = 3200, Gen-MW = 3258.64, Reactors-Mvar = 600, Capacitors-Mvar = 950, Load-Mvar = 1950"
64,3004     WEST        500.00,0,0,0.0,0.0,0.0,0.0,0.0,0.0,0.0,0.0,0.0,3002     E. MINE     500.00    5  1,-55.7821,-19.1798,,0.0,0,,"Load-MW = 3200, Gen-MW = 3258.64, Reactors-Mvar = 600, Capacitors-Mvar = 950, Load-Mvar = 1950"
65,3004     WEST        500.00,0,0,0.0,0.0,0.0,0.0,0.0,0.0,0.0,0.0,0.0,3005     WEST        230.00    5  1,193.3372,133.2711,1.000LK,0.0,29,800.0,"Load-MW = 3200, Gen-MW = 3258.64, Reactors-Mvar = 600, Capacitors-Mvar = 950, Load-Mvar = 1950"
66,3005     WEST        230.00,5,5,0.9949,228.8377,-5.1791,0.0,0.0,100.0,50.0,0.0,-0.0,,0.0,0.0,,0.0,0,,"Load-MW = 3200, Gen-MW = 3258.64, Reactors-Mvar = 600, Capacitors-Mvar = 950, Load-Mvar = 1950"
67,3005     WEST        230.00,0,0,0.0,0.0,0.0,0.0,0.0,0.0,0.0,0.0,0.0,3003     S. MINE     230.00    5  1,-100.551,-43.2432,,0.0,0,,"Load-MW = 3200, Gen-MW = 3258.64, Reactors-Mvar = 600, Capacitors-Mvar = 950, Load-Mvar = 1950"
68,3005     WEST        230.00,0,0,0.0,0.0,0.0,0.0,0.0,0.0,0.0,0.0,0.0,3003     S. MINE     230.00    5  2,-100.551,-43.2432,,0.0,0,,"Load-MW = 3200, Gen-MW = 3258.64, Reactors-Mvar = 600, Capacitors-Mvar = 950, Load-Mvar = 1950"
69,3005     WEST        230.00,0,0,0.0,0.0,0.0,0.0,0.0,0.0,0.0,0.0,0.0,3004     WEST        500.00    5  1,-193.1238,-124.6001,1.000UN,0.0,29,800.0,"Load-MW = 3200, Gen-MW = 3258.64, Reactors-Mvar = 600, Capacitors-Mvar = 950, Load-Mvar = 1950"
70,3005     WEST        230.00,0,0,0.0,0.0,0.0,0.0,0.0,0.0,0.0,0.0,0.0,3006     UPTOWN      230.00    5  1,-78.457,8.3885,,0.0,0,,"Load-MW = 3200, Gen-MW = 3258.64, Reactors-Mvar = 600, Capacitors-Mvar = 950, Load-Mvar = 1950"
71,3005     WEST        230.00,0,0,0.0,0.0,0.0,0.0,0.0,0.0,0.0,0.0,0.0,3008     CATDOG      230.00    5  &1,236.8145,98.7403,,0.0,0,,"Load-MW = 3200, Gen-MW = 3258.64, Reactors-Mvar = 600, Capacitors-Mvar = 950, Load-Mvar = 1950"
72,3005     WEST        230.00,0,0,0.0,0.0,0.0,0.0,0.0,0.0,0.0,0.0,0.0,3008     CATDOG      230.00    5  1,135.8686,53.9576,,0.0,0,,"Load-MW = 3200, Gen-MW = 3258.64, Reactors-Mvar = 600, Capacitors-Mvar = 950, Load-Mvar = 1950"
73,3006     UPTOWN      230.00,5,5,0.9944,228.7175,-3.7919,0.0,0.0,0.0,0.0,0.0,-0.0,,0.0,0.0,,0.0,0,,"Load-MW = 3200, Gen-MW = 3258.64, Reactors-Mvar = 600, Capacitors-Mvar = 950, Load-Mvar = 1950"
74,3006     UPTOWN      230.00,0,0,0.0,0.0,0.0,0.0,0.0,0.0,0.0,0.0,0.0,153     MID230      230.00    1  1,-78.6796,13.4063,,0.0,0,,"Load-MW = 3200, Gen-MW = 3258.64, Reactors-Mvar = 600, Capacitors-Mvar = 950, Load-Mvar = 1950"
75,3006     UPTOWN      230.00,0,0,0.0,0.0,0.0,0.0,0.0,0.0,0.0,0.0,0.0,3005     WEST        230.00    5  1,78.6796,-13.4063,,0.0,0,,"Load-MW = 3200, Gen-MW = 3258.64, Reactors-Mvar = 600, Capacitors-Mvar = 950, Load-Mvar = 1950"
76,3008     CATDOG      230.00,5,5,0.9588,220.5322,-9.0463,0.0,0.0,200.0,75.0,0.0,-0.0,,0.0,0.0,,0.0,0,,"Load-MW = 3200, Gen-MW = 3258.64, Reactors-Mvar = 600, Capacitors-Mvar = 950, Load-Mvar = 1950"
77,3008     CATDOG      230.00,0,0,0.0,0.0,0.0,0.0,0.0,0.0,0.0,0.0,0.0,154     DOWNTN      230.00    1  1,69.2529,63.8066,,0.0,25,400.0,"Load-MW = 3200, Gen-MW = 3258.64, Reactors-Mvar = 600, Capacitors-Mvar = 950, Load-Mvar = 1950"
78,3008     CATDOG      230.00,0,0,0.0,0.0,0.0,0.0,0.0,0.0,0.0,0.0,0.0,3005     WEST        230.00    5  &1,-34.7539,-17.8765,,0.0,0,,"Load-MW = 3200, Gen-MW = 3258.64, Reactors-Mvar = 600, Capacitors-Mvar = 950, Load-Mvar = 1950"
79,3008     CATDOG      230.00,0,0,0.0,0.0,0.0,0.0,0.0,0.0,0.0,0.0,0.0,3005     WEST        230.00    5  1,-134.5322,-54.2771,,0.0,0,,"Load-MW = 3200, Gen-MW = 3258.64, Reactors-Mvar = 600, Capacitors-Mvar = 950, Load-Mvar = 1950"
80,3008     CATDOG      230.00,0,0,0.0,0.0,0.0,0.0,0.0,0.0,0.0,0.0,0.0,3018     CATDOG_G    13.800    5  1,-99.9675,-66.6532,1.000LK,0.0,80,150.0,"Load-MW = 3200, Gen-MW = 3258.64, Reactors-Mvar = 600, Capacitors-Mvar = 950, Load-Mvar = 1950"
81,3011     MINE_G      13.800,5,5,1.04,14.352,0.0,258.6381,103.6063,0.0,0.0,0.0,-0.0,,0.0,0.0,,0.0,0,,"Load-MW = 3200, Gen-MW = 3258.64, Reactors-Mvar = 600, Capacitors-Mvar = 950, Load-Mvar = 1950"
82,3011     MINE_G      13.800,0,0,0.0,0.0,0.0,0.0,0.0,0.0,0.0,0.0,0.0,3001     MINE        230.00    5  1,258.6381,103.6063,1.000UN,0.0,21,1300.0,"Load-MW = 3200, Gen-MW = 3258.64, Reactors-Mvar = 600, Capacitors-Mvar = 950, Load-Mvar = 1950"
83,3018     CATDOG_G    13.800,5,5,1.022,14.1033,-4.0798,100.0,80.0,0.0,0.0,0.0,-0.0,,0.0,0.0,,0.0,0,,"Load-MW = 3200, Gen-MW = 3258.64, Reactors-Mvar = 600, Capacitors-Mvar = 950, Load-Mvar = 1950"
84,3018     CATDOG_G    13.800,0,0,0.0,0.0,0.0,0.0,0.0,0.0,0.0,0.0,0.0,3008     CATDOG      230.00    5  1,100.0005,80.0002,1.000UN,0.0,85,150.0,"Load-MW = 3200, Gen-MW = 3258.64, Reactors-Mvar = 600, Capacitors-Mvar = 950, Load-Mvar = 1950"
0,101     NUC-A       21.600,1,77,1.02,22.032,14.9336,750.0,84.1604,0.0,0.0,0.0,-0.0,,0.0,0.0,,0.0,0,,"Load-MW = 3264, Gen-MW = 3324.8, Reactors-Mvar = 600, Capacitors-Mvar = 950, Load-Mvar = 1950"
1,101     NUC-A       21.600,0,0,0.0,0.0,0.0,0.0,0.0,0.0,0.0,0.0,0.0,151     NUCPANT     500.00    1  1,749.9996,84.1604,1.000UN,0.0,60,1250.0,"Load-MW = 3264, Gen-MW = 3324.8, Reactors-Mvar = 600, Capacitors-Mvar = 950, Load-Mvar = 1950"
2,102     NUC-B       21.600,1,77,1.02,22.032,14.9336,750.0,84.1604,0.0,0.0,0.0,-0.0,,0.0,0.0,,0.0,0,,"Load-MW = 3264, Gen-MW = 3324.8, Reactors-Mvar = 600, Capacitors-Mvar = 950, Load-Mvar = 1950"
3,102     NUC-B       21.600,0,0,0.0,0.0,0.0,0.0,0.0,0.0,0.0,0.0,0.0,151     NUCPANT     500.00    1  1,749.9996,84.1604,1.000UN,0.0,60,1250.0,"Load-MW = 3264, Gen-MW = 3324.8, Reactors-Mvar = 600, Capacitors-Mvar = 950, Load-Mvar = 1950"
4,151     NUCPANT     500.00,1,1,1.0115,505.7517,9.274,0.0,0.0,0.0,0.0,0.0,613.8835,,0.0,0.0,,0.0,0,,"Load-MW = 3264, Gen-MW = 3324.8, Reactors-Mvar = 600, Capacitors-Mvar = 950, Load-Mvar = 1950"
5,151     NUCPANT     500.00,0,0,0.0,0.0,0.0,0.0,0.0,0.0,0.0,0.0,0.0,101     NUC-A       21.600    1  1,-748.3572,-9.7052,1.000LK,0.0,60,1250.0,"Load-MW = 3264, Gen-MW = 3324.8, Reactors-Mvar = 600, Capacitors-Mvar = 950, Load-Mvar = 1950"
6,151     NUCPANT     500.00,0,0,0.0,0.0,0.0,0.0,0.0,0.0,0.0,0.0,0.0,102     NUC-B       21.600    1  1,-748.3572,-9.7052,1.000LK,0.0,60,1250.0,"Load-MW = 3264, Gen-MW = 3324.8, Reactors-Mvar = 600, Capacitors-Mvar = 950, Load-Mvar = 1950"
7,151     NUCPANT     500.00,0,0,0.0,0.0,0.0,0.0,0.0,0.0,0.0,0.0,0.0,152     MID500      500.00    1  1,463.2915,-163.6297,,0.0,40,1200.0,"Load-MW = 3264, Gen-MW = 3324.8, Reactors-Mvar = 600, Capacitors-Mvar = 950, Load-Mvar = 1950"
8,151     NUCPANT     500.00,0,0,0.0,0.0,0.0,0.0,0.0,0.0,0.0,0.0,0.0,152     MID500      500.00    1  2,463.2915,-163.6297,,0.0,40,1200.0,"Load-MW = 3264, Gen-MW = 3324.8, Reactors-Mvar = 600, Capacitors-Mvar = 950, Load-Mvar = 1950"
9,151     NUCPANT     500.00,0,0,0.0,0.0,0.0,0.0,0.0,0.0,0.0,0.0,0.0,201     HYDRO       500.00    2  1,570.1284,-267.2138,,0.0,52,1200.0,"Load-MW = 3264, Gen-MW = 3324.8, Reactors-Mvar = 600, Capacitors-Mvar = 950, Load-Mvar = 1950"
10,152     MID500      500.00,1,1,1.0146,507.3075,-2.6881,0.0,0.0,0.0,0.0,0.0,-0.0,,0.0,0.0,,0.0,0,,"Load-MW = 3264, Gen-MW = 3324.8, Reactors-Mvar = 600, Capacitors-Mvar = 950, Load-Mvar = 1950"
11,152     MID500      500.00,0,0,0.0,0.0,0.0,0.0,0.0,0.0,0.0,0.0,0.0,151     NUCPANT     500.00    1  1,-457.8311,-98.9643,,0.0,38,1200.0,"Load-MW = 3264, Gen-MW = 3324.8, Reactors-Mvar = 600, Capacitors-Mvar = 950, Load-Mvar = 1950"
12,152     MID500      500.00,0,0,0.0,0.0,0.0,0.0,0.0,0.0,0.0,0.0,0.0,151     NUCPANT     500.00    1  2,-457.8311,-98.9643,,0.0,38,1200.0,"Load-MW = 3264, Gen-MW = 3324.8, Reactors-Mvar = 600, Capacitors-Mvar = 950, Load-Mvar = 1950"
13,152     MID500      500.00,0,0,0.0,0.0,0.0,0.0,0.0,0.0,0.0,0.0,0.0,153     MID230      230.00    1  1,743.6385,304.6829,1.009LK,0.0,32,2500.0,"Load-MW = 3264, Gen-MW = 3324.8, Reactors-Mvar = 600, Capacitors-Mvar = 950, Load-Mvar = 1950"
14,152     MID500      500.00,0,0,0.0,0.0,0.0,0.0,0.0,0.0,0.0,0.0,0.0,202     EAST500     500.00    2  1,56.1261,29.5243,,0.0,5,1200.0,"Load-MW = 3264, Gen-MW = 3324.8, Reactors-Mvar = 600, Capacitors-Mvar = 950, Load-Mvar = 1950"
15,152     MID500      500.00,0,0,0.0,0.0,0.0,0.0,0.0,0.0,0.0,0.0,0.0,3004     WEST        500.00    5  1,115.8934,-136.2786,,0.0,0,,"Load-MW = 3264, Gen-MW = 3324.8, Reactors-Mvar = 600, Capacitors-Mvar = 950, Load-Mvar = 1950"
16,153     MID230      230.00,1,1,0.9907,227.8683,-4.8278,0.0,0.0,204.0,100.0,0.0,-0.0,,0.0,0.0,,0.0,0,,"Load-MW = 3264, Gen-MW = 3324.8, Reactors-Mvar = 600, Capacitors-Mvar = 950, Load-Mvar = 1950"
17,153     MID230      230.00,0,0,0.0,0.0,0.0,0.0,0.0,0.0,0.0,0.0,0.0,152     MID500      500.00    1  1,-743.6385,-272.7237,1.000UN,0.0,32,2500.0,"Load-MW = 3264, Gen-MW = 3324.8, Reactors-Mvar = 600, Capacitors-Mvar = 950, Load-Mvar = 1950"
18,153     MID230      230.00,0,0,0.0,0.0,0.0,0.0,0.0,0.0,0.0,0.0,0.0,154     DOWNTN      230.00    1  1,259.8563,103.5925,,0.0,94,300.0,"Load-MW = 3264, Gen-MW = 3324.8, Reactors-Mvar = 600, Capacitors-Mvar = 950, Load-Mvar = 1950"
19,153     MID230      230.00,0,0,0.0,0.0,0.0,0.0,0.0,0.0,0.0,0.0,0.0,154     DOWNTN      230.00    1  2,216.5469,83.0552,,0.0,78,300.0,"Load-MW = 3264, Gen-MW = 3324.8, Reactors-Mvar = 600, Capacitors-Mvar = 950, Load-Mvar = 1950"
20,153     MID230      230.00,0,0,0.0,0.0,0.0,0.0,0.0,0.0,0.0,0.0,0.0,3006     UPTOWN      230.00    5  1,63.2356,-13.9235,,0.0,0,,"Load-MW = 3264, Gen-MW = 3324.8, Reactors-Mvar = 600, Capacitors-Mvar = 950, Load-Mvar = 1950"
21,154     DOWNTN      230.00,1,1,0.9351,215.0808,-11.7407,0.0,0.0,1020.0,800.0,0.0,-262.3425,,0.0,0.0,,0.0,0,,"Load-MW = 3264, Gen-MW = 3324.8, Reactors-Mvar = 600, Capacitors-Mvar = 950, Load-Mvar = 1950"
22,154     DOWNTN      230.00,0,0,0.0,0.0,0.0,0.0,0.0,0.0,0.0,0.0,0.0,153     MID230      230.00    1  1,-255.8168,-76.5179,,0.0,95,300.0,"Load-MW = 3264, Gen-MW = 3324.8, Reactors-Mvar = 600, Capacitors-Mvar = 950, Load-Mvar = 1950"
23,154     DOWNTN      230.00,0,0,0.0,0.0,0.0,0.0,0.0,0.0,0.0,0.0,0.0,153     MID230      230.00    1  2,-213.1807,-66.6799,,0.0,80,300.0,"Load-MW = 3264, Gen-MW = 3324.8, Reactors-Mvar = 600, Capacitors-Mvar = 950, Load-Mvar = 1950"
24,154     DOWNTN      230.00,0,0,0.0,0.0,0.0,0.0,0.0,0.0,0.0,0.0,0.0,203     EAST230     230.00    2  1,-123.8315,-54.6304,,0.0,72,200.0,"Load-MW = 3264, Gen-MW = 3324.8, Reactors-Mvar = 600, Capacitors-Mvar = 950, Load-Mvar = 1950"
25,154     DOWNTN      230.00,0,0,0.0,0.0,0.0,0.0,0.0,0.0,0.0,0.0,0.0,205     SUB230      230.00    2  1,-340.9441,-253.7646,,0.0,76,600.0,"Load-MW = 3264, Gen-MW = 3324.8, Reactors-Mvar = 600, Capacitors-Mvar = 950, Load-Mvar = 1950"
26,154     DOWNTN      230.00,0,0,0.0,0.0,0.0,0.0,0.0,0.0,0.0,0.0,0.0,3008     CATDOG      230.00    5  1,-86.2147,-86.0596,,0.0,33,400.0,"Load-MW = 3264, Gen-MW = 3324.8, Reactors-Mvar = 600, Capacitors-Mvar = 950, Load-Mvar = 1950"
27,201     HYDRO       500.00,2,2,1.04,520.0,4.4985,0.0,0.0,0.0,0.0,0.0,-324.48,,0.0,0.0,,0.0,0,,"Load-MW = 3264, Gen-MW = 3324.8, Reactors-Mvar = 600, Capacitors-Mvar = 950, Load-Mvar = 1950"
28,201     HYDRO       500.00,0,0,0.0,0.0,0.0,0.0,0.0,0.0,0.0,0.0,0.0,151     NUCPANT     500.00    1  1,-566.5374,194.7946,,0.0,48,1200.0,"Load-MW = 3264, Gen-MW = 3324.8, Reactors-Mvar = 600, Capacitors-Mvar = 950, Load-Mvar = 1950"
29,201     HYDRO       500.00,0,0,0.0,0.0,0.0,0.0,0.0,0.0,0.0,0.0,0.0,202     EAST500     500.00    2  1,554.5104,22.5246,,0.0,44,1200.0,"Load-MW = 3264, Gen-MW = 3324.8, Reactors-Mvar = 600, Capacitors-Mvar = 950, Load-Mvar = 1950"
30,201     HYDRO       500.00,0,0,0.0,0.0,0.0,0.0,0.0,0.0,0.0,0.0,0.0,205     SUB230      230.00    2  &1,609.7078,77.487,,0.0,49,1200.0,"Load-MW = 3264, Gen-MW = 3324.8, Reactors-Mvar = 600, Capacitors-Mvar = 950, Load-Mvar = 1950"
31,201     HYDRO       500.00,0,0,0.0,0.0,0.0,0.0,0.0,0.0,0.0,0.0,0.0,211     HYDRO_G     20.000    2  1,-597.6954,29.711,1.000LK,0.0,75,800.0,"Load-MW = 3264, Gen-MW = 3324.8, Reactors-Mvar = 600, Capacitors-Mvar = 950, Load-Mvar = 1950"
32,202     EAST500     500.00,2,2,1.0065,503.2276,-2.9678,0.0,0.0,0.0,0.0,0.0,-0.0,,0.0,0.0,,0.0,0,,"Load-MW = 3264, Gen-MW = 3324.8, Reactors-Mvar = 600, Capacitors-Mvar = 950, Load-Mvar = 1950"
33,202     EAST500     500.00,0,0,0.0,0.0,0.0,0.0,0.0,0.0,0.0,0.0,0.0,152     MID500      500.00    1  1,-56.0538,-125.6346,,0.0,11,1200.0,"Load-MW = 3264, Gen-MW = 3324.8, Reactors-Mvar = 600, Capacitors-Mvar = 950, Load-Mvar = 1950"
34,202     EAST500     500.00,0,0,0.0,0.0,0.0,0.0,0.0,0.0,0.0,0.0,0.0,201     HYDRO       500.00    2  1,-548.5089,-156.9612,,0.0,47,1200.0,"Load-MW = 3264, Gen-MW = 3324.8, Reactors-Mvar = 600, Capacitors-Mvar = 950, Load-Mvar = 1950"
35,202     EAST500     500.00,0,0,0.0,0.0,0.0,0.0,0.0,0.0,0.0,0.0,0.0,203     EAST230     230.00    2  1,604.5581,282.5957,1.000LK,0.0,83,800.0,"Load-MW = 3264, Gen-MW = 3324.8, Reactors-Mvar = 600, Capacitors-Mvar = 950, Load-Mvar = 1950"
36,203     EAST230     230.00,2,2,0.9633,221.552,-8.7166,0.0,0.0,306.0,150.0,0.0,-46.3944,,0.0,0.0,,0.0,0,,"Load-MW = 3264, Gen-MW = 3324.8, Reactors-Mvar = 600, Capacitors-Mvar = 950, Load-Mvar = 1950"
37,203     EAST230     230.00,0,0,0.0,0.0,0.0,0.0,0.0,0.0,0.0,0.0,0.0,154     DOWNTN      230.00    1  1,124.6485,53.7881,,0.0,70,200.0,"Load-MW = 3264, Gen-MW = 3324.8, Reactors-Mvar = 600, Capacitors-Mvar = 950, Load-Mvar = 1950"
38,203     EAST230     230.00,0,0,0.0,0.0,0.0,0.0,0.0,0.0,0.0,0.0,0.0,202     EAST500     500.00    2  1,-602.7994,-211.1515,1.000UN,0.0,80,800.0,"Load-MW = 3264, Gen-MW = 3324.8, Reactors-Mvar = 600, Capacitors-Mvar = 950, Load-Mvar = 1950"
39,203     EAST230     230.00,0,0,0.0,0.0,0.0,0.0,0.0,0.0,0.0,0.0,0.0,205     SUB230      230.00    2  1,86.0764,26.8793,,0.0,47,200.0,"Load-MW = 3264, Gen-MW = 3324.8, Reactors-Mvar = 600, Capacitors-Mvar = 950, Load-Mvar = 1950"
40,203     EAST230     230.00,0,0,0.0,0.0,0.0,0.0,0.0,0.0,0.0,0.0,0.0,205     SUB230      230.00    2  2,86.0764,26.8793,,0.0,47,200.0,"Load-MW = 3264, Gen-MW = 3324.8, Reactors-Mvar = 600, Capacitors-Mvar = 950, Load-Mvar = 1950"
41,205     SUB230      230.00,2,2,0.9453,217.4191,-11.0582,0.0,0.0,1224.0,700.0,0.0,-268.0778,,0.0,0.0,,0.0,0,,"Load-MW = 3264, Gen-MW = 3324.8, Reactors-Mvar = 600, Capacitors-Mvar = 950, Load-Mvar = 1950"
42,205     SUB230      230.00,0,0,0.0,0.0,0.0,0.0,0.0,0.0,0.0,0.0,0.0,154     DOWNTN      230.00    1  1,341.6183,252.6116,,0.0,75,600.0,"Load-MW = 3264, Gen-MW = 3324.8, Reactors-Mvar = 600, Capacitors-Mvar = 950, Load-Mvar = 1950"
43,205     SUB230      230.00,0,0,0.0,0.0,0.0,0.0,0.0,0.0,0.0,0.0,0.0,201     HYDRO       500.00    2  &1,-596.8616,-152.3889,1.000UN,0.0,77,800.0,"Load-MW = 3264, Gen-MW = 3324.8, Reactors-Mvar = 600, Capacitors-Mvar = 950, Load-Mvar = 1950"
44,205     SUB230      230.00,0,0,0.0,0.0,0.0,0.0,0.0,0.0,0.0,0.0,0.0,203     EAST230     230.00    2  1,-85.6268,-30.1182,,0.0,48,200.0,"Load-MW = 3264, Gen-MW = 3324.8, Reactors-Mvar = 600, Capacitors-Mvar = 950, Load-Mvar = 1950"
45,205     SUB230      230.00,0,0,0.0,0.0,0.0,0.0,0.0,0.0,0.0,0.0,0.0,203     EAST230     230.00    2  2,-85.6268,-30.1182,,0.0,48,200.0,"Load-MW = 3264, Gen-MW = 3324.8, Reactors-Mvar = 600, Capacitors-Mvar = 950, Load-Mvar = 1950"
46,205     SUB230      230.00,0,0,0.0,0.0,0.0,0.0,0.0,0.0,0.0,0.0,0.0,206     URBGEN      18.000    2  1,-797.4898,-471.9039,1.000LK,0.0,103,900.0,"Load-MW = 3264, Gen-MW = 3324.8, Reactors-Mvar = 600, Capacitors-Mvar = 950, Load-Mvar = 1950"
47,206     URBGEN      18.000,2,2,1.0201,18.362,-4.8025,800.0,600.0,0.0,0.0,0.0,-0.0,,0.0,0.0,,0.0,0,,"Load-MW = 3264, Gen-MW = 3324.8, Reactors-Mvar = 600, Capacitors-Mvar = 950, Load-Mvar = 1950"
48,206     URBGEN      18.000,0,0,0.0,0.0,0.0,0.0,0.0,0.0,0.0,0.0,0.0,205     SUB230      230.00    2  1,799.9883,599.9964,1.000UN,0.0,111,900.0,"Load-MW = 3264, Gen-MW = 3324.8, Reactors-Mvar = 600, Capacitors-Mvar = 950, Load-Mvar = 1950"
49,211     HYDRO_G     20.000,2,2,1.0451,20.9027,11.22,600.0,40.686,0.0,0.0,0.0,-0.0,,0.0,0.0,,0.0,0,,"Load-MW = 3264, Gen-MW = 3324.8, Reactors-Mvar = 600, Capacitors-Mvar = 950, Load-Mvar = 1950"
50,211     HYDRO_G     20.000,0,0,0.0,0.0,0.0,0.0,0.0,0.0,0.0,0.0,0.0,201     HYDRO       500.00    2  1,600.0131,40.6487,1.000UN,0.0,75,800.0,"Load-MW = 3264, Gen-MW = 3324.8, Reactors-Mvar = 600, Capacitors-Mvar = 950, Load-Mvar = 1950"
51,3001     MINE        230.00,5,5,1.0289,236.6452,-1.7271,0.0,0.0,0.0,0.0,0.0,-0.0,,0.0,0.0,,0.0,0,,"Load-MW = 3264, Gen-MW = 3324.8, Reactors-Mvar = 600, Capacitors-Mvar = 950, Load-Mvar = 1950"
52,3001     MINE        230.00,0,0,0.0,0.0,0.0,0.0,0.0,0.0,0.0,0.0,0.0,3002     E. MINE     500.00    5  1,78.4346,13.2474,1.000LK,0.0,10,800.0,"Load-MW = 3264, Gen-MW = 3324.8, Reactors-Mvar = 600, Capacitors-Mvar = 950, Load-Mvar = 1950"
53,3001     MINE        230.00,0,0,0.0,0.0,0.0,0.0,0.0,0.0,0.0,0.0,0.0,3003     S. MINE     230.00    5  1,246.1237,89.6852,,0.0,0,,"Load-MW = 3264, Gen-MW = 3324.8, Reactors-Mvar = 600, Capacitors-Mvar = 950, Load-Mvar = 1950"
54,3001     MINE        230.00,0,0,0.0,0.0,0.0,0.0,0.0,0.0,0.0,0.0,0.0,3011     MINE_G      13.800    5  1,-324.5589,-102.9327,1.000LK,0.0,26,1300.0,"Load-MW = 3264, Gen-MW = 3324.8, Reactors-Mvar = 600, Capacitors-Mvar = 950, Load-Mvar = 1950"
55,3002     E. MINE     500.00,5,5,1.0268,513.3978,-2.363,0.0,0.0,0.0,0.0,0.0,-0.0,,0.0,0.0,,0.0,0,,"Load-MW = 3264, Gen-MW = 3324.8, Reactors-Mvar = 600, Capacitors-Mvar = 950, Load-Mvar = 1950"
56,3002     E. MINE     500.00,0,0,0.0,0.0,0.0,0.0,0.0,0.0,0.0,0.0,0.0,3001     MINE        230.00    5  1,-78.4167,-12.3509,1.000UN,0.0,10,800.0,"Load-MW = 3264, Gen-MW = 3324.8, Reactors-Mvar = 600, Capacitors-Mvar = 950, Load-Mvar = 1950"
57,3002     E. MINE     500.00,0,0,0.0,0.0,0.0,0.0,0.0,0.0,0.0,0.0,0.0,3004     WEST        500.00    5  1,78.4168,12.3509,,0.0,0,,"Load-MW = 3264, Gen-MW = 3324.8, Reactors-Mvar = 600, Capacitors-Mvar = 950, Load-Mvar = 1950"
58,3003     S. MINE     230.00,5,5,1.0221,235.0826,-2.7999,0.0,0.0,0.0,0.0,0.0,-0.0,,0.0,0.0,,0.0,0,,"Load-MW = 3264, Gen-MW = 3324.8, Reactors-Mvar = 600, Capacitors-Mvar = 950, Load-Mvar = 1950"
59,3003     S. MINE     230.00,0,0,0.0,0.0,0.0,0.0,0.0,0.0,0.0,0.0,0.0,3001     MINE        230.00    5  1,-246.1237,-84.4996,,0.0,0,,"Load-MW = 3264, Gen-MW = 3324.8, Reactors-Mvar = 600, Capacitors-Mvar = 950, Load-Mvar = 1950"
60,3003     S. MINE     230.00,0,0,0.0,0.0,0.0,0.0,0.0,0.0,0.0,0.0,0.0,3005     WEST        230.00    5  1,123.062,42.2498,,0.0,0,,"Load-MW = 3264, Gen-MW = 3324.8, Reactors-Mvar = 600, Capacitors-Mvar = 950, Load-Mvar = 1950"
61,3003     S. MINE     230.00,0,0,0.0,0.0,0.0,0.0,0.0,0.0,0.0,0.0,0.0,3005     WEST        230.00    5  2,123.062,42.2498,,0.0,0,,"Load-MW = 3264, Gen-MW = 3324.8, Reactors-Mvar = 600, Capacitors-Mvar = 950, Load-Mvar = 1950"
62,3004     WEST        500.00,5,5,1.014,507.0108,-4.6374,0.0,0.0,0.0,0.0,0.0,-0.0,,0.0,0.0,,0.0,0,,"Load-MW = 3264, Gen-MW = 3324.8, Reactors-Mvar = 600, Capacitors-Mvar = 950, Load-Mvar = 1950"
63,3004     WEST        500.00,0,0,0.0,0.0,0.0,0.0,0.0,0.0,0.0,0.0,0.0,152     MID500      500.00    1  1,-115.5003,-117.0009,,0.0,0,,"Load-MW = 3264, Gen-MW = 3324.8, Reactors-Mvar = 600, Capacitors-Mvar = 950, Load-Mvar = 1950"
64,3004     WEST        500.00,0,0,0.0,0.0,0.0,0.0,0.0,0.0,0.0,0.0,0.0,3002     E. MINE     500.00    5  1,-78.0502,-18.4232,,0.0,0,,"Load-MW = 3264, Gen-MW = 3324.8, Reactors-Mvar = 600, Capacitors-Mvar = 950, Load-Mvar = 1950"
65,3004     WEST        500.00,0,0,0.0,0.0,0.0,0.0,0.0,0.0,0.0,0.0,0.0,3005     WEST        230.00    5  1,193.5501,135.424,1.000LK,0.0,30,800.0,"Load-MW = 3264, Gen-MW = 3324.8, Reactors-Mvar = 600, Capacitors-Mvar = 950, Load-Mvar = 1950"
66,3005     WEST        230.00,5,5,0.992,228.1656,-6.3982,0.0,0.0,102.0,50.0,0.0,-0.0,,0.0,0.0,,0.0,0,,"Load-MW = 3264, Gen-MW = 3324.8, Reactors-Mvar = 600, Capacitors-Mvar = 950, Load-Mvar = 1950"
67,3005     WEST        230.00,0,0,0.0,0.0,0.0,0.0,0.0,0.0,0.0,0.0,0.0,3003     S. MINE     230.00    5  1,-122.0656,-42.4119,,0.0,0,,"Load-MW = 3264, Gen-MW = 3324.8, Reactors-Mvar = 600, Capacitors-Mvar = 950, Load-Mvar = 1950"
68,3005     WEST        230.00,0,0,0.0,0.0,0.0,0.0,0.0,0.0,0.0,0.0,0.0,3003     S. MINE     230.00    5  2,-122.0656,-42.4119,,0.0,0,,"Load-MW = 3264, Gen-MW = 3324.8, Reactors-Mvar = 600, Capacitors-Mvar = 950, Load-Mvar = 1950"
69,3005     WEST        230.00,0,0,0.0,0.0,0.0,0.0,0.0,0.0,0.0,0.0,0.0,3004     WEST        500.00    5  1,-193.333,-126.6053,1.000UN,0.0,29,800.0,"Load-MW = 3264, Gen-MW = 3324.8, Reactors-Mvar = 600, Capacitors-Mvar = 950, Load-Mvar = 1950"
70,3005     WEST        230.00,0,0,0.0,0.0,0.0,0.0,0.0,0.0,0.0,0.0,0.0,3006     UPTOWN      230.00    5  1,-63.0488,5.836,,0.0,0,,"Load-MW = 3264, Gen-MW = 3324.8, Reactors-Mvar = 600, Capacitors-Mvar = 950, Load-Mvar = 1950"
71,3005     WEST        230.00,0,0,0.0,0.0,0.0,0.0,0.0,0.0,0.0,0.0,0.0,3008     CATDOG      230.00    5  &1,250.7178,100.4741,,0.0,0,,"Load-MW = 3264, Gen-MW = 3324.8, Reactors-Mvar = 600, Capacitors-Mvar = 950, Load-Mvar = 1950"
72,3005     WEST        230.00,0,0,0.0,0.0,0.0,0.0,0.0,0.0,0.0,0.0,0.0,3008     CATDOG      230.00    5  1,147.7948,55.1192,,0.0,0,,"Load-MW = 3264, Gen-MW = 3324.8, Reactors-Mvar = 600, Capacitors-Mvar = 950, Load-Mvar = 1950"
73,3006     UPTOWN      230.00,5,5,0.9916,228.0754,-5.2776,0.0,0.0,0.0,0.0,0.0,-0.0,,0.0,0.0,,0.0,0,,"Load-MW = 3264, Gen-MW = 3324.8, Reactors-Mvar = 600, Capacitors-Mvar = 950, Load-Mvar = 1950"
74,3006     UPTOWN      230.00,0,0,0.0,0.0,0.0,0.0,0.0,0.0,0.0,0.0,0.0,153     MID230      230.00    1  1,-63.1932,11.484,,0.0,0,,"Load-MW = 3264, Gen-MW = 3324.8, Reactors-Mvar = 600, Capacitors-Mvar = 950, Load-Mvar = 1950"
75,3006     UPTOWN      230.00,0,0,0.0,0.0,0.0,0.0,0.0,0.0,0.0,0.0,0.0,3005     WEST        230.00    5  1,63.1932,-11.484,,0.0,0,,"Load-MW = 3264, Gen-MW = 3324.8, Reactors-Mvar = 600, Capacitors-Mvar = 950, Load-Mvar = 1950"
76,3008     CATDOG      230.00,5,5,0.955,219.64,-10.6501,0.0,0.0,204.0,75.0,0.0,-0.0,,0.0,0.0,,0.0,0,,"Load-MW = 3264, Gen-MW = 3324.8, Reactors-Mvar = 600, Capacitors-Mvar = 950, Load-Mvar = 1950"
77,3008     CATDOG      230.00,0,0,0.0,0.0,0.0,0.0,0.0,0.0,0.0,0.0,0.0,154     DOWNTN      230.00    1  1,86.6085,62.4719,,0.0,28,400.0,"Load-MW = 3264, Gen-MW = 3324.8, Reactors-Mvar = 600, Capacitors-Mvar = 950, Load-Mvar = 1950"
78,3008     CATDOG      230.00,0,0,0.0,0.0,0.0,0.0,0.0,0.0,0.0,0.0,0.0,3005     WEST        230.00    5  &1,-44.4052,-17.4095,,0.0,0,,"Load-MW = 3264, Gen-MW = 3324.8, Reactors-Mvar = 600, Capacitors-Mvar = 950, Load-Mvar = 1950"
79,3008     CATDOG      230.00,0,0,0.0,0.0,0.0,0.0,0.0,0.0,0.0,0.0,0.0,3005     WEST        230.00    5  1,-146.236,-53.5056,,0.0,0,,"Load-MW = 3264, Gen-MW = 3324.8, Reactors-Mvar = 600, Capacitors-Mvar = 950, Load-Mvar = 1950"
80,3008     CATDOG      230.00,0,0,0.0,0.0,0.0,0.0,0.0,0.0,0.0,0.0,0.0,3018     CATDOG_G    13.800    5  1,-99.9656,-66.5564,1.000LK,0.0,80,150.0,"Load-MW = 3264, Gen-MW = 3324.8, Reactors-Mvar = 600, Capacitors-Mvar = 950, Load-Mvar = 1950"
81,3011     MINE_G      13.800,5,5,1.04,14.352,0.0,324.7779,113.8841,0.0,0.0,0.0,-0.0,,0.0,0.0,,0.0,0,,"Load-MW = 3264, Gen-MW = 3324.8, Reactors-Mvar = 600, Capacitors-Mvar = 950, Load-Mvar = 1950"
82,3011     MINE_G      13.800,0,0,0.0,0.0,0.0,0.0,0.0,0.0,0.0,0.0,0.0,3001     MINE        230.00    5  1,324.7779,113.8841,1.000UN,0.0,26,1300.0,"Load-MW = 3264, Gen-MW = 3324.8, Reactors-Mvar = 600, Capacitors-Mvar = 950, Load-Mvar = 1950"
83,3018     CATDOG_G    13.800,5,5,1.0183,14.0525,-5.6454,100.0,80.0,0.0,0.0,0.0,-0.0,,0.0,0.0,,0.0,0,,"Load-MW = 3264, Gen-MW = 3324.8, Reactors-Mvar = 600, Capacitors-Mvar = 950, Load-Mvar = 1950"
84,3018     CATDOG_G    13.800,0,0,0.0,0.0,0.0,0.0,0.0,0.0,0.0,0.0,0.0,3008     CATDOG      230.00    5  1,99.9988,79.9996,1.000UN,0.0,85,150.0,"Load-MW = 3264, Gen-MW = 3324.8, Reactors-Mvar = 600, Capacitors-Mvar = 950, Load-Mvar = 1950"
0,101     NUC-A       21.600,1,77,1.02,22.032,13.2688,750.0,87.5561,0.0,0.0,0.0,-0.0,,0.0,0.0,,0.0,0,,"Load-MW = 3329.3, Gen-MW = 3392.7, Reactors-Mvar = 600, Capacitors-Mvar = 950, Load-Mvar = 1950"
1,101     NUC-A       21.600,0,0,0.0,0.0,0.0,0.0,0.0,0.0,0.0,0.0,0.0,151     NUCPANT     500.00    1  1,749.9995,87.5561,1.000UN,0.0,60,1250.0,"Load-MW = 3329.3, Gen-MW = 3392.7, Reactors-Mvar = 600, Capacitors-Mvar = 950, Load-Mvar = 1950"
2,102     NUC-B       21.600,1,77,1.02,22.032,13.2688,750.0,87.5561,0.0,0.0,0.0,-0.0,,0.0,0.0,,0.0,0,,"Load-MW = 3329.3, Gen-MW = 3392.7, Reactors-Mvar = 600, Capacitors-Mvar = 950, Load-Mvar = 1950"
3,102     NUC-B       21.600,0,0,0.0,0.0,0.0,0.0,0.0,0.0,0.0,0.0,0.0,151     NUCPANT     500.00    1  1,749.9995,87.5561,1.000UN,0.0,60,1250.0,"Load-MW = 3329.3, Gen-MW = 3392.7, Reactors-Mvar = 600, Capacitors-Mvar = 950, Load-Mvar = 1950"
4,151     NUCPANT     500.00,1,1,1.0111,505.5259,7.6072,0.0,0.0,0.0,0.0,0.0,613.3355,,0.0,0.0,,0.0,0,,"Load-MW = 3329.3, Gen-MW = 3392.7, Reactors-Mvar = 600, Capacitors-Mvar = 950, Load-Mvar = 1950"
5,151     NUCPANT     500.00,0,0,0.0,0.0,0.0,0.0,0.0,0.0,0.0,0.0,0.0,101     NUC-A       21.600    1  1,-748.3554,-13.0247,1.000LK,0.0,60,1250.0,"Load-MW = 3329.3, Gen-MW = 3392.7, Reactors-Mvar = 600, Capacitors-Mvar = 950, Load-Mvar = 1950"
6,151     NUCPANT     500.00,0,0,0.0,0.0,0.0,0.0,0.0,0.0,0.0,0.0,0.0,102     NUC-B       21.600    1  1,-748.3554,-13.0247,1.000LK,0.0,60,1250.0,"Load-MW = 3329.3, Gen-MW = 3392.7, Reactors-Mvar = 600, Capacitors-Mvar = 950, Load-Mvar = 1950"
7,151     NUCPANT     500.00,0,0,0.0,0.0,0.0,0.0,0.0,0.0,0.0,0.0,0.0,152     MID500      500.00    1  1,460.5004,-158.6465,,0.0,40,1200.0,"Load-MW = 3329.3, Gen-MW = 3392.7, Reactors-Mvar = 600, Capacitors-Mvar = 950, Load-Mvar = 1950"
8,151     NUCPANT     500.00,0,0,0.0,0.0,0.0,0.0,0.0,0.0,0.0,0.0,0.0,152     MID500      500.00    1  2,460.5004,-158.6465,,0.0,40,1200.0,"Load-MW = 3329.3, Gen-MW = 3392.7, Reactors-Mvar = 600, Capacitors-Mvar = 950, Load-Mvar = 1950"
9,151     NUCPANT     500.00,0,0,0.0,0.0,0.0,0.0,0.0,0.0,0.0,0.0,0.0,201     HYDRO       500.00    2  1,575.706,-269.9933,,0.0,52,1200.0,"Load-MW = 3329.3, Gen-MW = 3392.7, Reactors-Mvar = 600, Capacitors-Mvar = 950, Load-Mvar = 1950"
10,152     MID500      500.00,1,1,1.0118,505.9096,-4.3132,0.0,0.0,0.0,0.0,0.0,-0.0,,0.0,0.0,,0.0,0,,"Load-MW = 3329.3, Gen-MW = 3392.7, Reactors-Mvar = 600, Capacitors-Mvar = 950, Load-Mvar = 1950"
11,152     MID500      500.00,0,0,0.0,0.0,0.0,0.0,0.0,0.0,0.0,0.0,0.0,151     NUCPANT     500.00    1  1,-455.0963,-103.7928,,0.0,38,1200.0,"Load-MW = 3329.3, Gen-MW = 3392.7, Reactors-Mvar = 600, Capacitors-Mvar = 950, Load-Mvar = 1950"
12,152     MID500      500.00,0,0,0.0,0.0,0.0,0.0,0.0,0.0,0.0,0.0,0.0,151     NUCPANT     500.00    1  2,-455.0963,-103.7928,,0.0,38,1200.0,"Load-MW = 3329.3, Gen-MW = 3392.7, Reactors-Mvar = 600, Capacitors-Mvar = 950, Load-Mvar = 1950"
13,152     MID500      500.00,0,0,0.0,0.0,0.0,0.0,0.0,0.0,0.0,0.0,0.0,153     MID230      230.00    1  1,747.0055,312.9635,1.009LK,0.0,32,2500.0,"Load-MW = 3329.3, Gen-MW = 3392.7, Reactors-Mvar = 600, Capacitors-Mvar = 950, Load-Mvar = 1950"
14,152     MID500      500.00,0,0,0.0,0.0,0.0,0.0,0.0,0.0,0.0,0.0,0.0,202     EAST500     500.00    2  1,70.075,27.6475,,0.0,6,1200.0,"Load-MW = 3329.3, Gen-MW = 3392.7, Reactors-Mvar = 600, Capacitors-Mvar = 950, Load-Mvar = 1950"
15,152     MID500      500.00,0,0,0.0,0.0,0.0,0.0,0.0,0.0,0.0,0.0,0.0,3004     WEST        500.00    5  1,93.1065,-133.0255,,0.0,0,,"Load-MW = 3329.3, Gen-MW = 3392.7, Reactors-Mvar = 600, Capacitors-Mvar = 950, Load-Mvar = 1950"
16,153     MID230      230.00,1,1,0.9875,227.1295,-6.4755,0.0,0.0,208.08,100.0,0.0,-0.0,,0.0,0.0,,0.0,0,,"Load-MW = 3329.3, Gen-MW = 3392.7, Reactors-Mvar = 600, Capacitors-Mvar = 950, Load-Mvar = 1950"
17,153     MID230      230.00,0,0,0.0,0.0,0.0,0.0,0.0,0.0,0.0,0.0,0.0,152     MID500      500.00    1  1,-747.0055,-280.3232,1.000UN,0.0,32,2500.0,"Load-MW = 3329.3, Gen-MW = 3392.7, Reactors-Mvar = 600, Capacitors-Mvar = 950, Load-Mvar = 1950"
18,153     MID230      230.00,0,0,0.0,0.0,0.0,0.0,0.0,0.0,0.0,0.0,0.0,154     DOWNTN      230.00    1  1,268.1263,106.5849,,0.0,97,300.0,"Load-MW = 3329.3, Gen-MW = 3392.7, Reactors-Mvar = 600, Capacitors-Mvar = 950, Load-Mvar = 1950"
19,153     MID230      230.00,0,0,0.0,0.0,0.0,0.0,0.0,0.0,0.0,0.0,0.0,154     DOWNTN      230.00    1  2,223.4386,85.5701,,0.0,81,300.0,"Load-MW = 3329.3, Gen-MW = 3392.7, Reactors-Mvar = 600, Capacitors-Mvar = 950, Load-Mvar = 1950"
20,153     MID230      230.00,0,0,0.0,0.0,0.0,0.0,0.0,0.0,0.0,0.0,0.0,3006     UPTOWN      230.00    5  1,47.3608,-11.831,,0.0,0,,"Load-MW = 3329.3, Gen-MW = 3392.7, Reactors-Mvar = 600, Capacitors-Mvar = 950, Load-Mvar = 1950"
21,154     DOWNTN      230.00,1,1,0.9305,214.0102,-13.6704,0.0,0.0,1040.4,800.0,0.0,-259.7374,,0.0,0.0,,0.0,0,,"Load-MW = 3329.3, Gen-MW = 3392.7, Reactors-Mvar = 600, Capacitors-Mvar = 950, Load-Mvar = 1950"
22,154     DOWNTN      230.00,0,0,0.0,0.0,0.0,0.0,0.0,0.0,0.0,0.0,0.0,153     MID230      230.00    1  1,-263.8033,-76.8828,,0.0,98,300.0,"Load-MW = 3329.3, Gen-MW = 3392.7, Reactors-Mvar = 600, Capacitors-Mvar = 950, Load-Mvar = 1950"
23,154     DOWNTN      230.00,0,0,0.0,0.0,0.0,0.0,0.0,0.0,0.0,0.0,0.0,153     MID230      230.00    1  2,-219.8361,-66.955,,0.0,82,300.0,"Load-MW = 3329.3, Gen-MW = 3392.7, Reactors-Mvar = 600, Capacitors-Mvar = 950, Load-Mvar = 1950"
24,154     DOWNTN      230.00,0,0,0.0,0.0,0.0,0.0,0.0,0.0,0.0,0.0,0.0,203     EAST230     230.00    2  1,-125.361,-55.7925,,0.0,74,200.0,"Load-MW = 3329.3, Gen-MW = 3392.7, Reactors-Mvar = 600, Capacitors-Mvar = 950, Load-Mvar = 1950"
25,154     DOWNTN      230.00,0,0,0.0,0.0,0.0,0.0,0.0,0.0,0.0,0.0,0.0,205     SUB230      230.00    2  1,-327.6221,-257.1555,,0.0,75,600.0,"Load-MW = 3329.3, Gen-MW = 3392.7, Reactors-Mvar = 600, Capacitors-Mvar = 950, Load-Mvar = 1950"
26,154     DOWNTN      230.00,0,0,0.0,0.0,0.0,0.0,0.0,0.0,0.0,0.0,0.0,3008     CATDOG      230.00    5  1,-103.7608,-83.4701,,0.0,36,400.0,"Load-MW = 3329.3, Gen-MW = 3392.7, Reactors-Mvar = 600, Capacitors-Mvar = 950, Load-Mvar = 1950"
27,201     HYDRO       500.00,2,2,1.04,520.0001,2.7823,0.0,0.0,0.0,0.0,0.0,-324.48,,0.0,0.0,,0.0,0,,"Load-MW = 3329.3, Gen-MW = 3392.7, Reactors-Mvar = 600, Capacitors-Mvar = 950, Load-Mvar = 1950"
28,201     HYDRO       500.00,0,0,0.0,0.0,0.0,0.0,0.0,0.0,0.0,0.0,0.0,151     NUCPANT     500.00    1  1,-572.0378,198.7872,,0.0,49,1200.0,"Load-MW = 3329.3, Gen-MW = 3392.7, Reactors-Mvar = 600, Capacitors-Mvar = 950, Load-Mvar = 1950"
29,201     HYDRO       500.00,0,0,0.0,0.0,0.0,0.0,0.0,0.0,0.0,0.0,0.0,202     EAST500     500.00    2  1,553.2219,33.706,,0.0,44,1200.0,"Load-MW = 3329.3, Gen-MW = 3392.7, Reactors-Mvar = 600, Capacitors-Mvar = 950, Load-Mvar = 1950"
...
